<?xml version="1.0" encoding="UTF-8"?>

<!-- generated on 2025-09-06 12:30:32.244834 by randomTrips.py v1_24_0+0000-b72eb3fabc8
<configuration>
    <net-file value="C:\Users\Legion\OneDrive\Desktop\KIET\SIH\Project-Intelli-Flow\ai_core\4x4loop.net.xml"/>
    <route-file value="C:\Users\Legion\OneDrive\Desktop\KIET\SIH\Project-Intelli-Flow\ai_core\4x4loop.rou.xml"/>
    <period value="0.1"/>
    <flows value="200"/>
</configuration>
-->

<!-- generated on 2025-09-06 12:30:31 by Eclipse SUMO duarouter Version 1.24.0
<duarouterConfiguration xmlns:xsi="http://www.w3.org/2001/XMLSchema-instance" xsi:noNamespaceSchemaLocation="http://sumo.dlr.de/xsd/duarouterConfiguration.xsd">

    <input>
        <net-file value="C:\Users\Legion\OneDrive\Desktop\KIET\SIH\Project-Intelli-Flow\ai_core\4x4loop.net.xml"/>
        <route-files value="trips.trips.xml"/>
    </input>

    <output>
        <output-file value="C:\Users\Legion\OneDrive\Desktop\KIET\SIH\Project-Intelli-Flow\ai_core\4x4loop.rou.xml"/>
        <alternatives-output value="NUL"/>
    </output>

    <time>
        <begin value="0"/>
        <end value="3600.0"/>
    </time>

    <report>
        <no-warnings value="true"/>
        <ignore-errors value="true"/>
        <no-step-log value="true"/>
    </report>

</duarouterConfiguration>
-->

<routes xmlns:xsi="http://www.w3.org/2001/XMLSchema-instance" xsi:noNamespaceSchemaLocation="http://sumo.dlr.de/xsd/routes_file.xsd">
    <vehicle id="0.0" depart="0.00">
        <route edges="D1C1 C1B1 B1A1 A1A0 A0B0"/>
    </vehicle>
    <vehicle id="1.0" depart="0.00">
        <route edges="B2A2 A2A3 A3left3"/>
    </vehicle>
    <vehicle id="10.0" depart="0.00">
        <route edges="bottom3D0 D0D1 D1D2 D2D3 D3C3 C3B3"/>
    </vehicle>
    <vehicle id="100.0" depart="0.00">
        <route edges="top2C3 C3C2 C2D2 D2right2"/>
    </vehicle>
    <vehicle id="101.0" depart="0.00">
        <route edges="left2A2 A2B2"/>
    </vehicle>
    <vehicle id="102.0" depart="0.00">
        <route edges="C2B2 B2A2 A2A3 A3B3"/>
    </vehicle>
    <vehicle id="103.0" depart="0.00">
        <route edges="C0C1 C1B1 B1B0 B0A0 A0left0"/>
    </vehicle>
    <vehicle id="104.0" depart="0.00">
        <route edges="C0B0 B0B1 B1B2 B2B3 B3C3 C3D3 D3top3"/>
    </vehicle>
    <vehicle id="105.0" depart="0.00">
        <route edges="B1C1 C1D1 D1D0 D0bottom3"/>
    </vehicle>
    <vehicle id="106.0" depart="0.00">
        <route edges="C1C2 C2C3 C3B3 B3B2 B2C2"/>
    </vehicle>
    <vehicle id="107.0" depart="0.00">
        <route edges="top1B3 B3C3 C3D3 D3top3"/>
    </vehicle>
    <vehicle id="108.0" depart="0.00">
        <route edges="C3B3 B3B2 B2A2 A2A3 A3B3 B3C3 C3C2"/>
    </vehicle>
    <vehicle id="109.0" depart="0.00">
        <route edges="A3B3 B3B2 B2B1 B1B0 B0C0"/>
    </vehicle>
    <vehicle id="11.0" depart="0.00">
        <route edges="B3A3 A3A2 A2B2 B2B1 B1A1 A1A2 A2A3"/>
    </vehicle>
    <vehicle id="110.0" depart="0.00">
        <route edges="top1B3 B3B2 B2C2 C2C1 C1C0"/>
    </vehicle>
    <vehicle id="111.0" depart="0.00">
        <route edges="C2D2 D2D3 D3C3 C3top2"/>
    </vehicle>
    <vehicle id="112.0" depart="0.00">
        <route edges="A1A2 A2B2 B2C2 C2C1 C1C0"/>
    </vehicle>
    <vehicle id="113.0" depart="0.00">
        <route edges="C2C1 C1D1 D1D2"/>
    </vehicle>
    <vehicle id="114.0" depart="0.00">
        <route edges="B0A0 A0A1 A1A2 A2A3 A3B3 B3C3 C3D3 D3D2"/>
    </vehicle>
    <vehicle id="115.0" depart="0.00">
        <route edges="A2A1 A1B1 B1B2 B2A2 A2left2"/>
    </vehicle>
    <vehicle id="116.0" depart="0.00">
        <route edges="D0C0 C0C1 C1C2 C2D2"/>
    </vehicle>
    <vehicle id="117.0" depart="0.00">
        <route edges="B1B2 B2A2 A2A1 A1left1"/>
    </vehicle>
    <vehicle id="118.0" depart="0.00">
        <route edges="right0D0 D0C0 C0B0 B0A0 A0A1 A1A2 A2A3 A3top0"/>
    </vehicle>
    <vehicle id="119.0" depart="0.00">
        <route edges="D0C0 C0C1 C1D1"/>
    </vehicle>
    <vehicle id="12.0" depart="0.00">
        <route edges="top1B3 B3B2 B2B1 B1B0"/>
    </vehicle>
    <vehicle id="120.0" depart="0.00">
        <route edges="C0D0 D0D1 D1C1 C1C0"/>
    </vehicle>
    <vehicle id="121.0" depart="0.00">
        <route edges="C2C3 C3D3 D3D2 D2right2"/>
    </vehicle>
    <vehicle id="122.0" depart="0.00">
        <route edges="B1A1 A1A2 A2A3 A3B3 B3C3 C3C2"/>
    </vehicle>
    <vehicle id="123.0" depart="0.00">
        <route edges="B1B2 B2A2 A2A3 A3B3 B3B2 B2B1"/>
    </vehicle>
    <vehicle id="124.0" depart="0.00">
        <route edges="D1D2 D2C2 C2B2 B2B1 B1B0 B0bottom1"/>
    </vehicle>
    <vehicle id="125.0" depart="0.00">
        <route edges="B2C2 C2D2 D2D1 D1D0 D0C0"/>
    </vehicle>
    <vehicle id="126.0" depart="0.00">
        <route edges="A1B1 B1B2 B2A2 A2A3 A3B3 B3B2"/>
    </vehicle>
    <vehicle id="127.0" depart="0.00">
        <route edges="top3D3 D3D2 D2C2 C2C3 C3D3 D3top3"/>
    </vehicle>
    <vehicle id="128.0" depart="0.00">
        <route edges="A1B1 B1B2 B2A2 A2A3 A3B3"/>
    </vehicle>
    <vehicle id="129.0" depart="0.00">
        <route edges="B1C1 C1C2 C2D2 D2right2"/>
    </vehicle>
    <vehicle id="13.0" depart="0.00">
        <route edges="A2A1 A1B1"/>
    </vehicle>
    <vehicle id="130.0" depart="0.00">
        <route edges="right0D0 D0D1 D1D2 D2C2"/>
    </vehicle>
    <vehicle id="131.0" depart="0.00">
        <route edges="B3C3 C3C2 C2C1 C1B1 B1A1 A1A2 A2B2"/>
    </vehicle>
    <vehicle id="132.0" depart="0.00">
        <route edges="left1A1 A1B1 B1B2 B2B3 B3C3 C3C2"/>
    </vehicle>
    <vehicle id="133.0" depart="0.00">
        <route edges="D0D1 D1D2 D2D3 D3top3"/>
    </vehicle>
    <vehicle id="134.0" depart="0.00">
        <route edges="D1D0 D0C0 C0B0 B0A0 A0A1"/>
    </vehicle>
    <vehicle id="135.0" depart="0.00">
        <route edges="left0A0 A0B0 B0bottom1"/>
    </vehicle>
    <vehicle id="136.0" depart="0.00">
        <route edges="D1D2 D2D3 D3C3"/>
    </vehicle>
    <vehicle id="137.0" depart="0.00">
        <route edges="A3A2 A2A1 A1left1"/>
    </vehicle>
    <vehicle id="138.0" depart="0.00">
        <route edges="A2A3 A3B3 B3C3 C3C2 C2C1 C1C0 C0bottom2"/>
    </vehicle>
    <vehicle id="139.0" depart="0.00">
        <route edges="B2A2 A2A1 A1B1 B1C1 C1C2"/>
    </vehicle>
    <vehicle id="14.0" depart="0.00">
        <route edges="left2A2 A2A1 A1B1 B1C1 C1C2"/>
    </vehicle>
    <vehicle id="140.0" depart="0.00">
        <route edges="D2D3 D3C3 C3C2 C2B2 B2A2 A2A3 A3B3"/>
    </vehicle>
    <vehicle id="141.0" depart="0.00">
        <route edges="D1C1 C1C0 C0B0 B0A0"/>
    </vehicle>
    <vehicle id="142.0" depart="0.00">
        <route edges="C2B2 B2B3 B3C3 C3D3 D3D2 D2D1"/>
    </vehicle>
    <vehicle id="143.0" depart="0.00">
        <route edges="left2A2 A2B2 B2B1 B1A1 A1A2"/>
    </vehicle>
    <vehicle id="144.0" depart="0.00">
        <route edges="C1B1 B1A1 A1A0 A0B0 B0B1"/>
    </vehicle>
    <vehicle id="145.0" depart="0.00">
        <route edges="A0A1 A1B1 B1C1 C1C0 C0D0 D0D1"/>
    </vehicle>
    <vehicle id="146.0" depart="0.00">
        <route edges="D1C1 C1C0 C0B0 B0A0"/>
    </vehicle>
    <vehicle id="147.0" depart="0.00">
        <route edges="D3D2 D2D1 D1D0 D0C0 C0bottom2"/>
    </vehicle>
    <vehicle id="148.0" depart="0.00">
        <route edges="C1B1 B1B0 B0A0 A0A1"/>
    </vehicle>
    <vehicle id="149.0" depart="0.00">
        <route edges="A1B1 B1C1 C1D1 D1D2 D2C2"/>
    </vehicle>
    <vehicle id="15.0" depart="0.00">
        <route edges="bottom3D0 D0D1 D1C1 C1C2 C2C3 C3D3"/>
    </vehicle>
    <vehicle id="150.0" depart="0.00">
        <route edges="right1D1 D1C1 C1C0 C0D0"/>
    </vehicle>
    <vehicle id="151.0" depart="0.00">
        <route edges="left1A1 A1B1 B1C1 C1C0"/>
    </vehicle>
    <vehicle id="152.0" depart="0.00">
        <route edges="A3B3 B3B2 B2A2 A2A1"/>
    </vehicle>
    <vehicle id="153.0" depart="0.00">
        <route edges="B2B3 B3C3 C3D3 D3D2 D2D1"/>
    </vehicle>
    <vehicle id="154.0" depart="0.00">
        <route edges="bottom2C0 C0C1 C1D1 D1right1"/>
    </vehicle>
    <vehicle id="155.0" depart="0.00">
        <route edges="right1D1 D1C1 C1B1 B1A1 A1A2 A2A3 A3B3"/>
    </vehicle>
    <vehicle id="156.0" depart="0.00">
        <route edges="B1B2 B2A2 A2A1 A1B1"/>
    </vehicle>
    <vehicle id="157.0" depart="0.00">
        <route edges="bottom1B0 B0B1 B1C1 C1D1 D1D2 D2C2"/>
    </vehicle>
    <vehicle id="158.0" depart="0.00">
        <route edges="C0D0 D0D1 D1D2 D2C2 C2C1 C1D1"/>
    </vehicle>
    <vehicle id="159.0" depart="0.00">
        <route edges="A3B3 B3C3 C3D3 D3D2 D2right2"/>
    </vehicle>
    <vehicle id="16.0" depart="0.00">
        <route edges="C2D2 D2D3 D3right3"/>
    </vehicle>
    <vehicle id="160.0" depart="0.00">
        <route edges="left3A3 A3B3 B3C3 C3D3 D3right3"/>
    </vehicle>
    <vehicle id="161.0" depart="0.00">
        <route edges="bottom3D0 D0D1 D1D2 D2C2"/>
    </vehicle>
    <vehicle id="162.0" depart="0.00">
        <route edges="A0B0 B0C0 C0C1 C1C2 C2C3 C3top2"/>
    </vehicle>
    <vehicle id="163.0" depart="0.00">
        <route edges="B3A3 A3A2 A2B2 B2C2 C2D2 D2right2"/>
    </vehicle>
    <vehicle id="164.0" depart="0.00">
        <route edges="bottom3D0 D0D1 D1right1"/>
    </vehicle>
    <vehicle id="165.0" depart="0.00">
        <route edges="bottom3D0 D0C0 C0B0 B0B1"/>
    </vehicle>
    <vehicle id="166.0" depart="0.00">
        <route edges="bottom2C0 C0B0 B0A0 A0A1 A1B1"/>
    </vehicle>
    <vehicle id="167.0" depart="0.00">
        <route edges="left3A3 A3B3 B3C3 C3C2 C2C1 C1D1 D1D2"/>
    </vehicle>
    <vehicle id="168.0" depart="0.00">
        <route edges="B1B0 B0C0 C0D0 D0D1 D1C1"/>
    </vehicle>
    <vehicle id="169.0" depart="0.00">
        <route edges="C1C2 C2B2 B2B1 B1B0 B0bottom1"/>
    </vehicle>
    <vehicle id="17.0" depart="0.00">
        <route edges="C0B0 B0B1 B1C1 C1C0 C0bottom2"/>
    </vehicle>
    <vehicle id="170.0" depart="0.00">
        <route edges="bottom2C0 C0C1 C1C2 C2C3 C3B3 B3A3 A3left3"/>
    </vehicle>
    <vehicle id="171.0" depart="0.00">
        <route edges="A0B0 B0B1 B1B2 B2B3 B3A3 A3A2"/>
    </vehicle>
    <vehicle id="172.0" depart="0.00">
        <route edges="B3A3 A3A2 A2A1 A1B1 B1C1 C1D1 D1right1"/>
    </vehicle>
    <vehicle id="173.0" depart="0.00">
        <route edges="top1B3 B3B2 B2C2 C2C1 C1C0 C0B0 B0B1"/>
    </vehicle>
    <vehicle id="174.0" depart="0.00">
        <route edges="D1D0 D0C0 C0C1 C1C2 C2B2 B2B1"/>
    </vehicle>
    <vehicle id="175.0" depart="0.00">
        <route edges="top2C3 C3C2 C2C1 C1C0 C0D0"/>
    </vehicle>
    <vehicle id="176.0" depart="0.00">
        <route edges="top0A3 A3A2 A2A1 A1left1"/>
    </vehicle>
    <vehicle id="177.0" depart="0.00">
        <route edges="top2C3 C3C2 C2B2 B2A2 A2left2"/>
    </vehicle>
    <vehicle id="178.0" depart="0.00">
        <route edges="top1B3 B3B2 B2B1 B1B0 B0A0"/>
    </vehicle>
    <vehicle id="179.0" depart="0.00">
        <route edges="A2A3 A3B3 B3B2 B2C2"/>
    </vehicle>
    <vehicle id="18.0" depart="0.00">
        <route edges="left1A1 A1B1 B1C1 C1D1"/>
    </vehicle>
    <vehicle id="180.0" depart="0.00">
        <route edges="D3C3 C3C2 C2C1 C1B1 B1A1"/>
    </vehicle>
    <vehicle id="181.0" depart="0.00">
        <route edges="D0C0 C0B0"/>
    </vehicle>
    <vehicle id="182.0" depart="0.00">
        <route edges="C0B0 B0B1 B1B2 B2C2 C2C1 C1B1"/>
    </vehicle>
    <vehicle id="183.0" depart="0.00">
        <route edges="B1C1 C1C2 C2B2 B2B3 B3C3 C3C2"/>
    </vehicle>
    <vehicle id="184.0" depart="0.00">
        <route edges="A0A1 A1A2 A2B2 B2C2 C2D2 D2right2"/>
    </vehicle>
    <vehicle id="185.0" depart="0.00">
        <route edges="C2D2 D2D1 D1C1 C1C2 C2C3 C3D3"/>
    </vehicle>
    <vehicle id="186.0" depart="0.00">
        <route edges="D3D2 D2C2 C2C3"/>
    </vehicle>
    <vehicle id="187.0" depart="0.00">
        <route edges="B3C3 C3C2 C2C1 C1B1 B1A1 A1A0"/>
    </vehicle>
    <vehicle id="188.0" depart="0.00">
        <route edges="D1D2 D2C2 C2B2 B2B1 B1B0"/>
    </vehicle>
    <vehicle id="189.0" depart="0.00">
        <route edges="B2C2 C2C1 C1D1 D1D2"/>
    </vehicle>
    <vehicle id="19.0" depart="0.00">
        <route edges="left3A3 A3B3 B3C3 C3C2 C2C1 C1B1"/>
    </vehicle>
    <vehicle id="190.0" depart="0.00">
        <route edges="D3C3 C3B3 B3B2 B2B1 B1B0 B0bottom1"/>
    </vehicle>
    <vehicle id="191.0" depart="0.00">
        <route edges="B2B3"/>
    </vehicle>
    <vehicle id="192.0" depart="0.00">
        <route edges="C0C1 C1B1 B1B0 B0C0"/>
    </vehicle>
    <vehicle id="193.0" depart="0.00">
        <route edges="A3A2 A2B2 B2B3"/>
    </vehicle>
    <vehicle id="194.0" depart="0.00">
        <route edges="top0A3 A3A2 A2B2 B2C2 C2D2"/>
    </vehicle>
    <vehicle id="195.0" depart="0.00">
        <route edges="right1D1 D1D0 D0C0 C0C1 C1D1"/>
    </vehicle>
    <vehicle id="196.0" depart="0.00">
        <route edges="B2B3 B3C3 C3C2 C2C1 C1C0 C0bottom2"/>
    </vehicle>
    <vehicle id="197.0" depart="0.00">
        <route edges="A0A1 A1B1 B1B0 B0C0"/>
    </vehicle>
    <vehicle id="198.0" depart="0.00">
        <route edges="C1B1 B1B2 B2C2 C2C1 C1C0"/>
    </vehicle>
    <vehicle id="199.0" depart="0.00">
        <route edges="D1D0 D0C0 C0C1 C1C2 C2C3 C3B3 B3B2"/>
    </vehicle>
    <vehicle id="2.0" depart="0.00">
        <route edges="D3D2 D2D1 D1C1 C1C2 C2D2"/>
    </vehicle>
    <vehicle id="20.0" depart="0.00">
        <route edges="D2D3 D3C3 C3B3 B3A3 A3A2 A2A1 A1A0 A0bottom0"/>
    </vehicle>
    <vehicle id="21.0" depart="0.00">
        <route edges="B1B0 B0C0"/>
    </vehicle>
    <vehicle id="22.0" depart="0.00">
        <route edges="A2A1 A1B1 B1B2 B2B3 B3A3 A3left3"/>
    </vehicle>
    <vehicle id="23.0" depart="0.00">
        <route edges="A2A3 A3B3 B3C3 C3C2 C2C1 C1C0 C0B0 B0B1"/>
    </vehicle>
    <vehicle id="24.0" depart="0.00">
        <route edges="D1C1 C1C0 C0B0 B0B1 B1C1"/>
    </vehicle>
    <vehicle id="25.0" depart="0.00">
        <route edges="B3C3 C3C2 C2B2 B2A2 A2A3 A3B3"/>
    </vehicle>
    <vehicle id="26.0" depart="0.00">
        <route edges="B2A2 A2A3 A3B3 B3C3 C3D3 D3D2 D2right2"/>
    </vehicle>
    <vehicle id="27.0" depart="0.00">
        <route edges="D1D0 D0C0 C0C1 C1C2"/>
    </vehicle>
    <vehicle id="28.0" depart="0.00">
        <route edges="B0A0 A0A1 A1A2 A2A3 A3B3 B3C3 C3D3"/>
    </vehicle>
    <vehicle id="29.0" depart="0.00">
        <route edges="B0A0 A0A1 A1B1 B1B2 B2A2"/>
    </vehicle>
    <vehicle id="3.0" depart="0.00">
        <route edges="right1D1 D1C1 C1B1 B1A1 A1A2"/>
    </vehicle>
    <vehicle id="30.0" depart="0.00">
        <route edges="top3D3 D3D2 D2C2 C2B2"/>
    </vehicle>
    <vehicle id="31.0" depart="0.00">
        <route edges="C3B3 B3B2 B2C2 C2D2"/>
    </vehicle>
    <vehicle id="32.0" depart="0.00">
        <route edges="left1A1 A1A0 A0B0 B0C0 C0D0 D0D1"/>
    </vehicle>
    <vehicle id="33.0" depart="0.00">
        <route edges="B1B0 B0A0 A0bottom0"/>
    </vehicle>
    <vehicle id="34.0" depart="0.00">
        <route edges="B2C2 C2C1 C1C0 C0B0 B0B1"/>
    </vehicle>
    <vehicle id="35.0" depart="0.00">
        <route edges="B1A1 A1A2 A2B2 B2C2 C2D2 D2D3 D3C3"/>
    </vehicle>
    <vehicle id="36.0" depart="0.00">
        <route edges="right0D0 D0D1 D1C1 C1B1 B1A1"/>
    </vehicle>
    <vehicle id="37.0" depart="0.00">
        <route edges="D1D0 D0C0 C0C1 C1C2 C2B2 B2B1"/>
    </vehicle>
    <vehicle id="38.0" depart="0.00">
        <route edges="right2D2 D2D3 D3C3 C3B3 B3B2"/>
    </vehicle>
    <vehicle id="39.0" depart="0.00">
        <route edges="B1C1 C1C2 C2B2 B2A2 A2A3 A3top0"/>
    </vehicle>
    <vehicle id="4.0" depart="0.00">
        <route edges="C1B1 B1A1 A1A0 A0B0"/>
    </vehicle>
    <vehicle id="40.0" depart="0.00">
        <route edges="C3B3 B3B2 B2B1 B1B0 B0A0"/>
    </vehicle>
    <vehicle id="41.0" depart="0.00">
        <route edges="C3D3 D3D2 D2D1"/>
    </vehicle>
    <vehicle id="42.0" depart="0.00">
        <route edges="C0C1 C1C2 C2C3 C3B3 B3A3 A3left3"/>
    </vehicle>
    <vehicle id="43.0" depart="0.00">
        <route edges="top3D3 D3D2 D2D1 D1D0 D0C0 C0B0"/>
    </vehicle>
    <vehicle id="44.0" depart="0.00">
        <route edges="A2A1 A1A0 A0left0"/>
    </vehicle>
    <vehicle id="45.0" depart="0.00">
        <route edges="A2B2 B2B3 B3C3 C3C2 C2B2"/>
    </vehicle>
    <vehicle id="46.0" depart="0.00">
        <route edges="bottom2C0 C0C1 C1B1 B1B2 B2C2"/>
    </vehicle>
    <vehicle id="47.0" depart="0.00">
        <route edges="A1B1 B1B2 B2A2"/>
    </vehicle>
    <vehicle id="48.0" depart="0.00">
        <route edges="top3D3 D3D2 D2D1 D1D0 D0C0 C0C1"/>
    </vehicle>
    <vehicle id="49.0" depart="0.00">
        <route edges="top2C3 C3C2 C2C1 C1D1 D1right1"/>
    </vehicle>
    <vehicle id="5.0" depart="0.00">
        <route edges="B1A1 A1A2 A2B2 B2C2 C2C1 C1C0 C0B0"/>
    </vehicle>
    <vehicle id="50.0" depart="0.00">
        <route edges="A0A1 A1A2 A2A3 A3B3 B3C3 C3D3"/>
    </vehicle>
    <vehicle id="51.0" depart="0.00">
        <route edges="D2C2 C2C1 C1C0 C0D0"/>
    </vehicle>
    <vehicle id="52.0" depart="0.00">
        <route edges="B2A2 A2A3 A3B3 B3C3 C3C2 C2C1"/>
    </vehicle>
    <vehicle id="53.0" depart="0.00">
        <route edges="A2B2 B2C2"/>
    </vehicle>
    <vehicle id="54.0" depart="0.00">
        <route edges="C1C2 C2C3 C3D3 D3D2"/>
    </vehicle>
    <vehicle id="55.0" depart="0.00">
        <route edges="right0D0 D0C0 C0B0 B0A0"/>
    </vehicle>
    <vehicle id="56.0" depart="0.00">
        <route edges="C2C1 C1B1 B1A1 A1A2 A2left2"/>
    </vehicle>
    <vehicle id="57.0" depart="0.00">
        <route edges="right2D2 D2D1 D1right1"/>
    </vehicle>
    <vehicle id="58.0" depart="0.00">
        <route edges="B2B3 B3C3 C3C2 C2B2"/>
    </vehicle>
    <vehicle id="59.0" depart="0.00">
        <route edges="D0C0 C0B0 B0A0 A0A1 A1A2 A2A3"/>
    </vehicle>
    <vehicle id="6.0" depart="0.00">
        <route edges="A0B0 B0B1 B1B2 B2B3 B3A3 A3A2"/>
    </vehicle>
    <vehicle id="60.0" depart="0.00">
        <route edges="bottom0A0 A0B0 B0C0 C0D0"/>
    </vehicle>
    <vehicle id="61.0" depart="0.00">
        <route edges="bottom1B0 B0C0 C0C1"/>
    </vehicle>
    <vehicle id="62.0" depart="0.00">
        <route edges="A0A1 A1A2 A2B2 B2B1 B1A1"/>
    </vehicle>
    <vehicle id="63.0" depart="0.00">
        <route edges="A0B0 B0B1 B1B2 B2C2 C2D2 D2right2"/>
    </vehicle>
    <vehicle id="64.0" depart="0.00">
        <route edges="right0D0 D0C0 C0C1 C1D1 D1D0"/>
    </vehicle>
    <vehicle id="65.0" depart="0.00">
        <route edges="B2B3 B3A3 A3A2 A2A1 A1A0 A0left0"/>
    </vehicle>
    <vehicle id="66.0" depart="0.00">
        <route edges="right0D0 D0D1 D1D2 D2D3 D3C3"/>
    </vehicle>
    <vehicle id="67.0" depart="0.00">
        <route edges="A2A1 A1B1 B1B2 B2B3 B3top1"/>
    </vehicle>
    <vehicle id="68.0" depart="0.00">
        <route edges="A1B1 B1C1 C1D1 D1D0 D0C0"/>
    </vehicle>
    <vehicle id="69.0" depart="0.00">
        <route edges="bottom1B0 B0B1 B1B2 B2A2 A2A1"/>
    </vehicle>
    <vehicle id="7.0" depart="0.00">
        <route edges="D1D0 D0C0 C0B0 B0B1 B1C1 C1C0 C0D0"/>
    </vehicle>
    <vehicle id="70.0" depart="0.00">
        <route edges="C1D1 D1D0 D0C0 C0bottom2"/>
    </vehicle>
    <vehicle id="71.0" depart="0.00">
        <route edges="B1C1 C1D1 D1right1"/>
    </vehicle>
    <vehicle id="72.0" depart="0.00">
        <route edges="C1B1 B1A1 A1A2 A2A3 A3B3"/>
    </vehicle>
    <vehicle id="73.0" depart="0.00">
        <route edges="C2D2 D2D1 D1C1 C1C2 C2C3 C3D3"/>
    </vehicle>
    <vehicle id="74.0" depart="0.00">
        <route edges="B0C0 C0C1 C1B1 B1B0 B0bottom1"/>
    </vehicle>
    <vehicle id="75.0" depart="0.00">
        <route edges="top3D3 D3C3 C3C2 C2C1"/>
    </vehicle>
    <vehicle id="76.0" depart="0.00">
        <route edges="C1C0 C0B0 B0B1 B1C1 C1D1 D1D0 D0C0 C0C1"/>
    </vehicle>
    <vehicle id="77.0" depart="0.00">
        <route edges="A2B2 B2B3 B3A3 A3left3"/>
    </vehicle>
    <vehicle id="78.0" depart="0.00">
        <route edges="B3A3 A3A2 A2B2 B2C2 C2C1 C1C0"/>
    </vehicle>
    <vehicle id="79.0" depart="0.00">
        <route edges="B1B0 B0A0 A0A1 A1A2 A2A3 A3left3"/>
    </vehicle>
    <vehicle id="8.0" depart="0.00">
        <route edges="B1B0 B0A0 A0A1 A1B1 B1C1 C1C0"/>
    </vehicle>
    <vehicle id="80.0" depart="0.00">
        <route edges="A1B1 B1C1 C1C2 C2B2"/>
    </vehicle>
    <vehicle id="81.0" depart="0.00">
        <route edges="B1B0 B0C0 C0C1 C1C2 C2D2 D2D1"/>
    </vehicle>
    <vehicle id="82.0" depart="0.00">
        <route edges="left3A3 A3A2 A2A1 A1A0"/>
    </vehicle>
    <vehicle id="83.0" depart="0.00">
        <route edges="B1B2 B2C2 C2C3"/>
    </vehicle>
    <vehicle id="84.0" depart="0.00">
        <route edges="B1A1 A1A2 A2A3 A3B3 B3B2 B2A2 A2A1"/>
    </vehicle>
    <vehicle id="85.0" depart="0.00">
        <route edges="right3D3 D3C3 C3C2 C2C1 C1B1"/>
    </vehicle>
    <vehicle id="86.0" depart="0.00">
        <route edges="C1D1 D1D0 D0bottom3"/>
    </vehicle>
    <vehicle id="87.0" depart="0.00">
        <route edges="bottom3D0 D0D1 D1D2 D2D3 D3C3 C3B3 B3A3 A3A2"/>
    </vehicle>
    <vehicle id="88.0" depart="0.00">
        <route edges="A2A3 A3B3 B3B2 B2C2"/>
    </vehicle>
    <vehicle id="89.0" depart="0.00">
        <route edges="C1B1 B1A1 A1A2 A2A3 A3B3 B3B2"/>
    </vehicle>
    <vehicle id="9.0" depart="0.00">
        <route edges="bottom3D0 D0C0 C0B0 B0A0 A0A1"/>
    </vehicle>
    <vehicle id="90.0" depart="0.00">
        <route edges="D3C3 C3C2 C2D2"/>
    </vehicle>
    <vehicle id="91.0" depart="0.00">
        <route edges="top2C3 C3C2 C2B2 B2A2 A2A1 A1B1"/>
    </vehicle>
    <vehicle id="92.0" depart="0.00">
        <route edges="C0C1 C1B1 B1B0"/>
    </vehicle>
    <vehicle id="93.0" depart="0.00">
        <route edges="left3A3 A3top0"/>
    </vehicle>
    <vehicle id="94.0" depart="0.00">
        <route edges="B0C0 C0C1 C1C2 C2C3 C3B3 B3A3"/>
    </vehicle>
    <vehicle id="95.0" depart="0.00">
        <route edges="C1B1 B1A1 A1A0 A0B0 B0B1"/>
    </vehicle>
    <vehicle id="96.0" depart="0.00">
        <route edges="B1B2 B2C2 C2D2 D2right2"/>
    </vehicle>
    <vehicle id="97.0" depart="0.00">
        <route edges="C1C0 C0D0 D0D1 D1right1"/>
    </vehicle>
    <vehicle id="98.0" depart="0.00">
        <route edges="C3B3 B3B2 B2B1 B1B0 B0A0 A0left0"/>
    </vehicle>
    <vehicle id="99.0" depart="0.00">
        <route edges="top3D3 D3D2 D2D1 D1D0"/>
    </vehicle>
    <vehicle id="0.1" depart="20.00">
        <route edges="D1C1 C1B1 B1A1 A1A0 A0B0"/>
    </vehicle>
    <vehicle id="1.1" depart="20.00">
        <route edges="B2A2 A2A3 A3left3"/>
    </vehicle>
    <vehicle id="10.1" depart="20.00">
        <route edges="bottom3D0 D0D1 D1D2 D2D3 D3C3 C3B3"/>
    </vehicle>
    <vehicle id="100.1" depart="20.00">
        <route edges="top2C3 C3C2 C2D2 D2right2"/>
    </vehicle>
    <vehicle id="101.1" depart="20.00">
        <route edges="left2A2 A2B2"/>
    </vehicle>
    <vehicle id="102.1" depart="20.00">
        <route edges="C2B2 B2A2 A2A3 A3B3"/>
    </vehicle>
    <vehicle id="103.1" depart="20.00">
        <route edges="C0C1 C1B1 B1B0 B0A0 A0left0"/>
    </vehicle>
    <vehicle id="104.1" depart="20.00">
        <route edges="C0B0 B0B1 B1B2 B2B3 B3C3 C3D3 D3top3"/>
    </vehicle>
    <vehicle id="105.1" depart="20.00">
        <route edges="B1C1 C1D1 D1D0 D0bottom3"/>
    </vehicle>
    <vehicle id="106.1" depart="20.00">
        <route edges="C1C2 C2C3 C3B3 B3B2 B2C2"/>
    </vehicle>
    <vehicle id="107.1" depart="20.00">
        <route edges="top1B3 B3C3 C3D3 D3top3"/>
    </vehicle>
    <vehicle id="108.1" depart="20.00">
        <route edges="C3B3 B3B2 B2A2 A2A3 A3B3 B3C3 C3C2"/>
    </vehicle>
    <vehicle id="109.1" depart="20.00">
        <route edges="A3B3 B3B2 B2B1 B1B0 B0C0"/>
    </vehicle>
    <vehicle id="11.1" depart="20.00">
        <route edges="B3A3 A3A2 A2B2 B2B1 B1A1 A1A2 A2A3"/>
    </vehicle>
    <vehicle id="110.1" depart="20.00">
        <route edges="top1B3 B3B2 B2C2 C2C1 C1C0"/>
    </vehicle>
    <vehicle id="111.1" depart="20.00">
        <route edges="C2D2 D2D3 D3C3 C3top2"/>
    </vehicle>
    <vehicle id="112.1" depart="20.00">
        <route edges="A1A2 A2B2 B2C2 C2C1 C1C0"/>
    </vehicle>
    <vehicle id="113.1" depart="20.00">
        <route edges="C2C1 C1D1 D1D2"/>
    </vehicle>
    <vehicle id="114.1" depart="20.00">
        <route edges="B0A0 A0A1 A1A2 A2A3 A3B3 B3C3 C3D3 D3D2"/>
    </vehicle>
    <vehicle id="115.1" depart="20.00">
        <route edges="A2A1 A1B1 B1B2 B2A2 A2left2"/>
    </vehicle>
    <vehicle id="116.1" depart="20.00">
        <route edges="D0C0 C0C1 C1C2 C2D2"/>
    </vehicle>
    <vehicle id="117.1" depart="20.00">
        <route edges="B1B2 B2A2 A2A1 A1left1"/>
    </vehicle>
    <vehicle id="118.1" depart="20.00">
        <route edges="right0D0 D0C0 C0B0 B0A0 A0A1 A1A2 A2A3 A3top0"/>
    </vehicle>
    <vehicle id="119.1" depart="20.00">
        <route edges="D0C0 C0C1 C1D1"/>
    </vehicle>
    <vehicle id="12.1" depart="20.00">
        <route edges="top1B3 B3B2 B2B1 B1B0"/>
    </vehicle>
    <vehicle id="120.1" depart="20.00">
        <route edges="C0D0 D0D1 D1C1 C1C0"/>
    </vehicle>
    <vehicle id="121.1" depart="20.00">
        <route edges="C2C3 C3D3 D3D2 D2right2"/>
    </vehicle>
    <vehicle id="122.1" depart="20.00">
        <route edges="B1A1 A1A2 A2A3 A3B3 B3C3 C3C2"/>
    </vehicle>
    <vehicle id="123.1" depart="20.00">
        <route edges="B1B2 B2A2 A2A3 A3B3 B3B2 B2B1"/>
    </vehicle>
    <vehicle id="124.1" depart="20.00">
        <route edges="D1D2 D2C2 C2B2 B2B1 B1B0 B0bottom1"/>
    </vehicle>
    <vehicle id="125.1" depart="20.00">
        <route edges="B2C2 C2D2 D2D1 D1D0 D0C0"/>
    </vehicle>
    <vehicle id="126.1" depart="20.00">
        <route edges="A1B1 B1B2 B2A2 A2A3 A3B3 B3B2"/>
    </vehicle>
    <vehicle id="127.1" depart="20.00">
        <route edges="top3D3 D3D2 D2C2 C2C3 C3D3 D3top3"/>
    </vehicle>
    <vehicle id="128.1" depart="20.00">
        <route edges="A1B1 B1B2 B2A2 A2A3 A3B3"/>
    </vehicle>
    <vehicle id="129.1" depart="20.00">
        <route edges="B1C1 C1C2 C2D2 D2right2"/>
    </vehicle>
    <vehicle id="13.1" depart="20.00">
        <route edges="A2A1 A1B1"/>
    </vehicle>
    <vehicle id="130.1" depart="20.00">
        <route edges="right0D0 D0D1 D1D2 D2C2"/>
    </vehicle>
    <vehicle id="131.1" depart="20.00">
        <route edges="B3C3 C3C2 C2C1 C1B1 B1A1 A1A2 A2B2"/>
    </vehicle>
    <vehicle id="132.1" depart="20.00">
        <route edges="left1A1 A1B1 B1B2 B2B3 B3C3 C3C2"/>
    </vehicle>
    <vehicle id="133.1" depart="20.00">
        <route edges="D0D1 D1D2 D2D3 D3top3"/>
    </vehicle>
    <vehicle id="134.1" depart="20.00">
        <route edges="D1D0 D0C0 C0B0 B0A0 A0A1"/>
    </vehicle>
    <vehicle id="135.1" depart="20.00">
        <route edges="left0A0 A0B0 B0bottom1"/>
    </vehicle>
    <vehicle id="136.1" depart="20.00">
        <route edges="D1D2 D2D3 D3C3"/>
    </vehicle>
    <vehicle id="137.1" depart="20.00">
        <route edges="A3A2 A2A1 A1left1"/>
    </vehicle>
    <vehicle id="138.1" depart="20.00">
        <route edges="A2A3 A3B3 B3C3 C3C2 C2C1 C1C0 C0bottom2"/>
    </vehicle>
    <vehicle id="139.1" depart="20.00">
        <route edges="B2A2 A2A1 A1B1 B1C1 C1C2"/>
    </vehicle>
    <vehicle id="14.1" depart="20.00">
        <route edges="left2A2 A2A1 A1B1 B1C1 C1C2"/>
    </vehicle>
    <vehicle id="140.1" depart="20.00">
        <route edges="D2D3 D3C3 C3C2 C2B2 B2A2 A2A3 A3B3"/>
    </vehicle>
    <vehicle id="141.1" depart="20.00">
        <route edges="D1C1 C1C0 C0B0 B0A0"/>
    </vehicle>
    <vehicle id="142.1" depart="20.00">
        <route edges="C2B2 B2B3 B3C3 C3D3 D3D2 D2D1"/>
    </vehicle>
    <vehicle id="143.1" depart="20.00">
        <route edges="left2A2 A2B2 B2B1 B1A1 A1A2"/>
    </vehicle>
    <vehicle id="144.1" depart="20.00">
        <route edges="C1B1 B1A1 A1A0 A0B0 B0B1"/>
    </vehicle>
    <vehicle id="145.1" depart="20.00">
        <route edges="A0A1 A1B1 B1C1 C1C0 C0D0 D0D1"/>
    </vehicle>
    <vehicle id="146.1" depart="20.00">
        <route edges="D1C1 C1C0 C0B0 B0A0"/>
    </vehicle>
    <vehicle id="147.1" depart="20.00">
        <route edges="D3D2 D2D1 D1D0 D0C0 C0bottom2"/>
    </vehicle>
    <vehicle id="148.1" depart="20.00">
        <route edges="C1B1 B1B0 B0A0 A0A1"/>
    </vehicle>
    <vehicle id="149.1" depart="20.00">
        <route edges="A1B1 B1C1 C1D1 D1D2 D2C2"/>
    </vehicle>
    <vehicle id="15.1" depart="20.00">
        <route edges="bottom3D0 D0D1 D1C1 C1C2 C2C3 C3D3"/>
    </vehicle>
    <vehicle id="150.1" depart="20.00">
        <route edges="right1D1 D1C1 C1C0 C0D0"/>
    </vehicle>
    <vehicle id="151.1" depart="20.00">
        <route edges="left1A1 A1B1 B1C1 C1C0"/>
    </vehicle>
    <vehicle id="152.1" depart="20.00">
        <route edges="A3B3 B3B2 B2A2 A2A1"/>
    </vehicle>
    <vehicle id="153.1" depart="20.00">
        <route edges="B2B3 B3C3 C3D3 D3D2 D2D1"/>
    </vehicle>
    <vehicle id="154.1" depart="20.00">
        <route edges="bottom2C0 C0C1 C1D1 D1right1"/>
    </vehicle>
    <vehicle id="155.1" depart="20.00">
        <route edges="right1D1 D1C1 C1B1 B1A1 A1A2 A2A3 A3B3"/>
    </vehicle>
    <vehicle id="156.1" depart="20.00">
        <route edges="B1B2 B2A2 A2A1 A1B1"/>
    </vehicle>
    <vehicle id="157.1" depart="20.00">
        <route edges="bottom1B0 B0B1 B1C1 C1D1 D1D2 D2C2"/>
    </vehicle>
    <vehicle id="158.1" depart="20.00">
        <route edges="C0D0 D0D1 D1D2 D2C2 C2C1 C1D1"/>
    </vehicle>
    <vehicle id="159.1" depart="20.00">
        <route edges="A3B3 B3C3 C3D3 D3D2 D2right2"/>
    </vehicle>
    <vehicle id="16.1" depart="20.00">
        <route edges="C2D2 D2D3 D3right3"/>
    </vehicle>
    <vehicle id="160.1" depart="20.00">
        <route edges="left3A3 A3B3 B3C3 C3D3 D3right3"/>
    </vehicle>
    <vehicle id="161.1" depart="20.00">